<?xml version="1.0" encoding="UTF-8"?>
<routes xmlns:xsi="http://www.w3.org/2001/XMLSchema-instance" xsi:noNamespaceSchemaLocation="http://sumo.dlr.de/xsd/routes_file.xsd">
    <vType id="car" accel="2.6" decel="4.5" sigma="0.5" length="5.0" maxSpeed="55.0"/>
    
    <route id="route0" edges="e0 e2"/>
    <route id="route1" edges="e1 e3"/>
    <route id="route2" edges="-e2 -e0"/>
    <route id="route3" edges="-e3 -e1"/>
    
    <flow id="flow0" type="car" route="route0" begin="0" end="3600" probability="0.1"/>
    <flow id="flow1" type="car" route="route1" begin="0" end="3600" probability="0.1"/>
    <flow id="flow2" type="car" route="route2" begin="0" end="3600" probability="0.1"/>
    <flow id="flow3" type="car" route="route3" begin="0" end="3600" probability="0.1"/>
</routes>